/*--------------------------------*- C++ -*----------------------------------*\
| =========                 |                                                 |
| \\      /  F ield         | OpenFOAM: The Open Source CFD Toolbox           |
|  \\    /   O peration     | Version:  v2412                                 |
|   \\  /    A nd           | Website:  www.openfoam.com                      |
|    \\/     M anipulation  |                                                 |
\*---------------------------------------------------------------------------*/
FoamFile
{
    version     2.0;
    format      ascii;
    class       dictionary;
    object      blockMeshDict;
}
// * * * * * * * * * * * * * * * * * * * * * * * * * * * * * * * * * * * * * //

scale   1;

vertices
(
    (0 0 0) //0
    (947 0 0) //1
    (1447 0 0) //2
    (2397 0 0) // 3
    (0 795 0) //4
    (947 795 0) // 5
    (1447 795 0)// 6
    (2397 795 0)//7
    (0 2090 0) //8
    (947 2090 0)//9
    (1447 2090 0) //10
    (2394 2090 0) //11
    (0 0 25000) //12
    (947 0 25000) //13
    (1447 0 25000) //14
    (2394 0 25000) // 15
    (0 795 25000) //16
    (947 795 25000) //17
    (1447 795 25000) //18
    (2394 795 25000) //19
    (0 2090 25000) // 20
    (947 2090 25000) //21 
    (1447 2090 25000) //22
    (2394 2090 25000) //23
);

blocks
(
    hex (0 1 5 4 12 13 17 16) (23 8 1) simpleGrading (1 1 1)
    hex (2 3 7 6 14 15 19 18) (19 8 1) simpleGrading (1 1 1)
    hex (4 5 9 8 16 17 21 20) (23 42 1) simpleGrading (1 1 1)
    hex (5 6 10 9 17 18 22 21) (4 42 1) simpleGrading (1 1 1)
    hex (6 7 11 10 18 19 23 22) (19 42 1) simpleGrading (1 1 1)
);

edges
(
);

boundary
(
    leftWall
    {
        type wall;
        faces
        (
            (0 12 16 4)
            (4 16 20 8)
        );
    }
    rightWall
    {
        type wall;
        faces
        (
            (7 19 15 3)
            (11 23 19 7)
        );
    }
    lowerWall
    {
        type wall;
        faces
        (
            (0 1 13 12)
            (1 5 17 13)
            (5 6 18 17)
            (2 14 18 6)
            (2 3 15 14)
        );
    }
    atmosphere
    {
        type patch;
        faces
        (
            (8 20 21 9)
            (9 21 22 10)
            (10 22 23 11)
        );
    }
);

mergePatchPairs
(
);


// ************************************************************************* //
